<?xml version="1.0" encoding="UTF-8"?>

<net version="1.20" junctionCornerDetail="5" limitTurnSpeed="5.50" avoidOverlap="0" xmlns:xsi="http://www.w3.org/2001/XMLSchema-instance" xsi:noNamespaceSchemaLocation="http://sumo.dlr.de/xsd/net_file.xsd">

    <location netOffset="0.00,0.00" convBoundary="-100.00,-100.00,100.00,100.00" origBoundary="-10000000000.00,-10000000000.00,10000000000.00,10000000000.00" projParameter="!"/>

    <edge id=":J2_0" function="internal">
        <lane id=":J2_0_0" index="0" speed="6.51" length="9.03" shape="-8.00,16.80 -8.35,14.35 -9.40,12.60 -11.15,11.55 -13.60,11.20"/>
    </edge>
    <edge id=":J2_1" function="internal">
        <lane id=":J2_1_0" index="0" speed="13.89" length="33.60" shape="-8.00,16.80 -8.00,-16.80"/>
        <lane id=":J2_1_1" index="1" speed="13.89" length="33.60" shape="-4.80,16.80 -4.80,-16.80"/>
        <lane id=":J2_1_2" index="2" speed="13.89" length="33.60" shape="-1.60,16.80 -1.60,-16.80"/>
    </edge>
    <edge id=":J2_4" function="internal">
        <lane id=":J2_4_0" index="0" speed="10.88" length="27.14" shape="-1.60,16.80 -0.65,8.75 2.20,3.00 6.95,-0.45 13.60,-1.60"/>
    </edge>
    <edge id=":J2_5" function="internal">
        <lane id=":J2_5_0" index="0" speed="6.51" length="9.03" shape="13.60,11.20 11.15,11.55 9.40,12.60 8.35,14.35 8.00,16.80"/>
    </edge>
    <edge id=":J2_6" function="internal">
        <lane id=":J2_6_0" index="0" speed="13.89" length="27.20" shape="13.60,11.20 -13.60,11.20"/>
        <lane id=":J2_6_1" index="1" speed="13.89" length="27.20" shape="13.60,8.00 -13.60,8.00"/>
        <lane id=":J2_6_2" index="2" speed="13.89" length="27.20" shape="13.60,4.80 -13.60,4.80"/>
        <lane id=":J2_6_3" index="3" speed="13.89" length="27.20" shape="13.60,1.60 -13.60,1.60"/>
    </edge>
    <edge id=":J2_10" function="internal">
        <lane id=":J2_10_0" index="0" speed="10.88" length="4.19" shape="13.60,1.60 9.48,0.89"/>
    </edge>
    <edge id=":J2_22" function="internal">
        <lane id=":J2_22_0" index="0" speed="10.88" length="22.96" shape="9.48,0.89 6.95,0.45 2.20,-3.00 -0.65,-8.75 -1.60,-16.80"/>
    </edge>
    <edge id=":J2_11" function="internal">
        <lane id=":J2_11_0" index="0" speed="6.51" length="9.03" shape="8.00,-16.80 8.35,-14.35 9.40,-12.60 11.15,-11.55 13.60,-11.20"/>
    </edge>
    <edge id=":J2_12" function="internal">
        <lane id=":J2_12_0" index="0" speed="13.89" length="33.60" shape="8.00,-16.80 8.00,16.80"/>
        <lane id=":J2_12_1" index="1" speed="13.89" length="33.60" shape="4.80,-16.80 4.80,16.80"/>
        <lane id=":J2_12_2" index="2" speed="13.89" length="33.60" shape="1.60,-16.80 1.60,16.80"/>
    </edge>
    <edge id=":J2_15" function="internal">
        <lane id=":J2_15_0" index="0" speed="10.88" length="27.14" shape="1.60,-16.80 0.65,-8.75 -2.20,-3.00 -6.95,0.45 -13.60,1.60"/>
    </edge>
    <edge id=":J2_16" function="internal">
        <lane id=":J2_16_0" index="0" speed="6.51" length="9.03" shape="-13.60,-11.20 -11.15,-11.55 -9.40,-12.60 -8.35,-14.35 -8.00,-16.80"/>
    </edge>
    <edge id=":J2_17" function="internal">
        <lane id=":J2_17_0" index="0" speed="13.89" length="27.20" shape="-13.60,-11.20 13.60,-11.20"/>
        <lane id=":J2_17_1" index="1" speed="13.89" length="27.20" shape="-13.60,-8.00 13.60,-8.00"/>
        <lane id=":J2_17_2" index="2" speed="13.89" length="27.20" shape="-13.60,-4.80 13.60,-4.80"/>
        <lane id=":J2_17_3" index="3" speed="13.89" length="27.20" shape="-13.60,-1.60 13.60,-1.60"/>
    </edge>
    <edge id=":J2_21" function="internal">
        <lane id=":J2_21_0" index="0" speed="10.88" length="4.19" shape="-13.60,-1.60 -9.48,-0.89"/>
    </edge>
    <edge id=":J2_23" function="internal">
        <lane id=":J2_23_0" index="0" speed="10.88" length="22.96" shape="-9.48,-0.89 -6.95,-0.45 -2.20,3.00 0.65,8.75 1.60,16.80"/>
    </edge>

    <edge id="-E0" from="J2" to="J1" priority="-1">
        <lane id="-E0_0" index="0" speed="13.89" length="86.40" shape="-13.60,11.20 -100.00,11.20"/>
        <lane id="-E0_1" index="1" speed="13.89" length="86.40" shape="-13.60,8.00 -100.00,8.00"/>
        <lane id="-E0_2" index="2" speed="13.89" length="86.40" shape="-13.60,4.80 -100.00,4.80"/>
        <lane id="-E0_3" index="3" speed="13.89" length="86.40" shape="-13.60,1.60 -100.00,1.60"/>
    </edge>
    <edge id="-E1" from="J2" to="J3" priority="-1">
        <lane id="-E1_0" index="0" speed="13.89" length="83.20" shape="8.00,16.80 8.00,100.00"/>
        <lane id="-E1_1" index="1" speed="13.89" length="83.20" shape="4.80,16.80 4.80,100.00"/>
        <lane id="-E1_2" index="2" speed="13.89" length="83.20" shape="1.60,16.80 1.60,100.00"/>
    </edge>
    <edge id="-E2" from="J2" to="J4" priority="-1">
        <lane id="-E2_0" index="0" speed="13.89" length="86.40" shape="13.60,-11.20 100.00,-11.20"/>
        <lane id="-E2_1" index="1" speed="13.89" length="86.40" shape="13.60,-8.00 100.00,-8.00"/>
        <lane id="-E2_2" index="2" speed="13.89" length="86.40" shape="13.60,-4.80 100.00,-4.80"/>
        <lane id="-E2_3" index="3" speed="13.89" length="86.40" shape="13.60,-1.60 100.00,-1.60"/>
    </edge>
    <edge id="-E3" from="J2" to="J5" priority="-1">
        <lane id="-E3_0" index="0" speed="13.89" length="83.20" shape="-8.00,-16.80 -8.00,-100.00"/>
        <lane id="-E3_1" index="1" speed="13.89" length="83.20" shape="-4.80,-16.80 -4.80,-100.00"/>
        <lane id="-E3_2" index="2" speed="13.89" length="83.20" shape="-1.60,-16.80 -1.60,-100.00"/>
    </edge>
    <edge id="E0" from="J1" to="J2" priority="-1">
        <lane id="E0_0" index="0" speed="13.89" length="86.40" shape="-100.00,-11.20 -13.60,-11.20"/>
        <lane id="E0_1" index="1" speed="13.89" length="86.40" shape="-100.00,-8.00 -13.60,-8.00"/>
        <lane id="E0_2" index="2" speed="13.89" length="86.40" shape="-100.00,-4.80 -13.60,-4.80"/>
        <lane id="E0_3" index="3" speed="13.89" length="86.40" shape="-100.00,-1.60 -13.60,-1.60"/>
    </edge>
    <edge id="E1" from="J3" to="J2" priority="-1">
        <lane id="E1_0" index="0" speed="13.89" length="83.20" shape="-8.00,100.00 -8.00,16.80"/>
        <lane id="E1_1" index="1" speed="13.89" length="83.20" shape="-4.80,100.00 -4.80,16.80"/>
        <lane id="E1_2" index="2" speed="13.89" length="83.20" shape="-1.60,100.00 -1.60,16.80"/>
    </edge>
    <edge id="E2" from="J4" to="J2" priority="-1">
        <lane id="E2_0" index="0" speed="13.89" length="86.40" shape="100.00,11.20 13.60,11.20"/>
        <lane id="E2_1" index="1" speed="13.89" length="86.40" shape="100.00,8.00 13.60,8.00"/>
        <lane id="E2_2" index="2" speed="13.89" length="86.40" shape="100.00,4.80 13.60,4.80"/>
        <lane id="E2_3" index="3" speed="13.89" length="86.40" shape="100.00,1.60 13.60,1.60"/>
    </edge>
    <edge id="E3" from="J5" to="J2" priority="-1">
        <lane id="E3_0" index="0" speed="13.89" length="83.20" shape="8.00,-100.00 8.00,-16.80"/>
        <lane id="E3_1" index="1" speed="13.89" length="83.20" shape="4.80,-100.00 4.80,-16.80"/>
        <lane id="E3_2" index="2" speed="13.89" length="83.20" shape="1.60,-100.00 1.60,-16.80"/>
    </edge>

    <junction id="J1" type="dead_end" x="-100.00" y="0.00" incLanes="-E0_0 -E0_1 -E0_2 -E0_3" intLanes="" shape="-100.00,0.00 -100.00,12.80 -100.00,0.00"/>
    <junction id="J2" type="priority" x="0.00" y="0.00" incLanes="E1_0 E1_1 E1_2 E2_0 E2_1 E2_2 E2_3 E3_0 E3_1 E3_2 E0_0 E0_1 E0_2 E0_3" intLanes=":J2_0_0 :J2_1_0 :J2_1_1 :J2_1_2 :J2_4_0 :J2_5_0 :J2_6_0 :J2_6_1 :J2_6_2 :J2_6_3 :J2_22_0 :J2_11_0 :J2_12_0 :J2_12_1 :J2_12_2 :J2_15_0 :J2_16_0 :J2_17_0 :J2_17_1 :J2_17_2 :J2_17_3 :J2_23_0" shape="-9.60,16.80 9.60,16.80 10.04,14.58 10.60,13.80 11.38,13.24 12.38,12.91 13.60,12.80 13.60,-12.80 11.38,-13.24 10.60,-13.80 10.04,-14.58 9.71,-15.58 9.60,-16.80 -9.60,-16.80 -10.04,-14.58 -10.60,-13.80 -11.38,-13.24 -12.38,-12.91 -13.60,-12.80 -13.60,12.80 -11.38,13.24 -10.60,13.80 -10.04,14.58 -9.71,15.58">
        <request index="0"  response="0000000000001111000000" foes="0000000000001111000000" cont="0"/>
        <request index="1"  response="1111110000011111000000" foes="1111111000011111000000" cont="0"/>
        <request index="2"  response="1111110000011111000000" foes="1111111000011111000000" cont="0"/>
        <request index="3"  response="1111110000011111000000" foes="1111111000011111000000" cont="0"/>
        <request index="4"  response="1111100111011111000000" foes="1111100111011111000000" cont="0"/>
        <request index="5"  response="0000000000000000000000" foes="0000000111000000000000" cont="0"/>
        <request index="6"  response="0000000000000000000000" foes="1000001111000000011111" cont="0"/>
        <request index="7"  response="0000000000000000000000" foes="1000001111000000011111" cont="0"/>
        <request index="8"  response="0000000000000000000000" foes="1000001111000000011111" cont="0"/>
        <request index="9"  response="0000000000000000000000" foes="1000001111000000011111" cont="0"/>
        <request index="10" response="0111100000000000000000" foes="0111101111000000011110" cont="1"/>
        <request index="11" response="0111100000000000000000" foes="0111100000000000000000" cont="0"/>
        <request index="12" response="1111100000011111100000" foes="1111100000011111110000" cont="0"/>
        <request index="13" response="1111100000011111100000" foes="1111100000011111110000" cont="0"/>
        <request index="14" response="1111100000011111100000" foes="1111100000011111110000" cont="0"/>
        <request index="15" response="1111100000011111001110" foes="1111100000011111001110" cont="0"/>
        <request index="16" response="0000000000000000000000" foes="0000000000000000001110" cont="0"/>
        <request index="17" response="0000000000000000000000" foes="0000001111110000011110" cont="0"/>
        <request index="18" response="0000000000000000000000" foes="0000001111110000011110" cont="0"/>
        <request index="19" response="0000000000000000000000" foes="0000001111110000011110" cont="0"/>
        <request index="20" response="0000000000000000000000" foes="0000001111110000011110" cont="0"/>
        <request index="21" response="0000000000001111000000" foes="0000001111001111011110" cont="1"/>
    </junction>
    <junction id="J3" type="dead_end" x="0.00" y="100.00" incLanes="-E1_0 -E1_1 -E1_2" intLanes="" shape="0.00,100.00 9.60,100.00 0.00,100.00"/>
    <junction id="J4" type="dead_end" x="100.00" y="0.00" incLanes="-E2_0 -E2_1 -E2_2 -E2_3" intLanes="" shape="100.00,0.00 100.00,-12.80 100.00,0.00"/>
    <junction id="J5" type="dead_end" x="0.00" y="-100.00" incLanes="-E3_0 -E3_1 -E3_2" intLanes="" shape="0.00,-100.00 -9.60,-100.00 0.00,-100.00"/>

    <junction id=":J2_22_0" type="internal" x="9.48" y="0.89" incLanes=":J2_10_0 E0_0 E0_1 E0_2 E0_3" intLanes=":J2_1_0 :J2_1_1 :J2_1_2 :J2_4_0 :J2_12_0 :J2_12_1 :J2_12_2 :J2_15_0 :J2_16_0 :J2_17_0 :J2_17_1 :J2_17_2 :J2_17_3"/>
    <junction id=":J2_23_0" type="internal" x="-9.48" y="-0.89" incLanes=":J2_21_0 E2_0 E2_1 E2_2 E2_3" intLanes=":J2_1_0 :J2_1_1 :J2_1_2 :J2_4_0 :J2_5_0 :J2_6_0 :J2_6_1 :J2_6_2 :J2_6_3 :J2_12_0 :J2_12_1 :J2_12_2 :J2_15_0"/>

    <connection from="E0" to="-E3" fromLane="0" toLane="0" via=":J2_16_0" dir="r" state="M"/>
    <connection from="E0" to="-E2" fromLane="0" toLane="0" via=":J2_17_0" dir="s" state="M"/>
    <connection from="E0" to="-E2" fromLane="1" toLane="1" via=":J2_17_1" dir="s" state="M"/>
    <connection from="E0" to="-E2" fromLane="2" toLane="2" via=":J2_17_2" dir="s" state="M"/>
    <connection from="E0" to="-E2" fromLane="3" toLane="3" via=":J2_17_3" dir="s" state="M"/>
    <connection from="E0" to="-E1" fromLane="3" toLane="2" via=":J2_21_0" dir="l" state="m"/>
    <connection from="E1" to="-E0" fromLane="0" toLane="0" via=":J2_0_0" dir="r" state="m"/>
    <connection from="E1" to="-E3" fromLane="0" toLane="0" via=":J2_1_0" dir="s" state="m"/>
    <connection from="E1" to="-E3" fromLane="1" toLane="1" via=":J2_1_1" dir="s" state="m"/>
    <connection from="E1" to="-E3" fromLane="2" toLane="2" via=":J2_1_2" dir="s" state="m"/>
    <connection from="E1" to="-E2" fromLane="2" toLane="3" via=":J2_4_0" dir="l" state="m"/>
    <connection from="E2" to="-E1" fromLane="0" toLane="0" via=":J2_5_0" dir="r" state="M"/>
    <connection from="E2" to="-E0" fromLane="0" toLane="0" via=":J2_6_0" dir="s" state="M"/>
    <connection from="E2" to="-E0" fromLane="1" toLane="1" via=":J2_6_1" dir="s" state="M"/>
    <connection from="E2" to="-E0" fromLane="2" toLane="2" via=":J2_6_2" dir="s" state="M"/>
    <connection from="E2" to="-E0" fromLane="3" toLane="3" via=":J2_6_3" dir="s" state="M"/>
    <connection from="E2" to="-E3" fromLane="3" toLane="2" via=":J2_10_0" dir="l" state="m"/>
    <connection from="E3" to="-E2" fromLane="0" toLane="0" via=":J2_11_0" dir="r" state="m"/>
    <connection from="E3" to="-E1" fromLane="0" toLane="0" via=":J2_12_0" dir="s" state="m"/>
    <connection from="E3" to="-E1" fromLane="1" toLane="1" via=":J2_12_1" dir="s" state="m"/>
    <connection from="E3" to="-E1" fromLane="2" toLane="2" via=":J2_12_2" dir="s" state="m"/>
    <connection from="E3" to="-E0" fromLane="2" toLane="3" via=":J2_15_0" dir="l" state="m"/>

    <connection from=":J2_0" to="-E0" fromLane="0" toLane="0" dir="r" state="M"/>
    <connection from=":J2_1" to="-E3" fromLane="0" toLane="0" dir="s" state="M"/>
    <connection from=":J2_1" to="-E3" fromLane="1" toLane="1" dir="s" state="M"/>
    <connection from=":J2_1" to="-E3" fromLane="2" toLane="2" dir="s" state="M"/>
    <connection from=":J2_4" to="-E2" fromLane="0" toLane="3" dir="l" state="M"/>
    <connection from=":J2_5" to="-E1" fromLane="0" toLane="0" dir="r" state="M"/>
    <connection from=":J2_6" to="-E0" fromLane="0" toLane="0" dir="s" state="M"/>
    <connection from=":J2_6" to="-E0" fromLane="1" toLane="1" dir="s" state="M"/>
    <connection from=":J2_6" to="-E0" fromLane="2" toLane="2" dir="s" state="M"/>
    <connection from=":J2_6" to="-E0" fromLane="3" toLane="3" dir="s" state="M"/>
    <connection from=":J2_10" to="-E3" fromLane="0" toLane="2" via=":J2_22_0" dir="l" state="m"/>
    <connection from=":J2_22" to="-E3" fromLane="0" toLane="2" dir="l" state="M"/>
    <connection from=":J2_11" to="-E2" fromLane="0" toLane="0" dir="r" state="M"/>
    <connection from=":J2_12" to="-E1" fromLane="0" toLane="0" dir="s" state="M"/>
    <connection from=":J2_12" to="-E1" fromLane="1" toLane="1" dir="s" state="M"/>
    <connection from=":J2_12" to="-E1" fromLane="2" toLane="2" dir="s" state="M"/>
    <connection from=":J2_15" to="-E0" fromLane="0" toLane="3" dir="l" state="M"/>
    <connection from=":J2_16" to="-E3" fromLane="0" toLane="0" dir="r" state="M"/>
    <connection from=":J2_17" to="-E2" fromLane="0" toLane="0" dir="s" state="M"/>
    <connection from=":J2_17" to="-E2" fromLane="1" toLane="1" dir="s" state="M"/>
    <connection from=":J2_17" to="-E2" fromLane="2" toLane="2" dir="s" state="M"/>
    <connection from=":J2_17" to="-E2" fromLane="3" toLane="3" dir="s" state="M"/>
    <connection from=":J2_21" to="-E1" fromLane="0" toLane="2" via=":J2_23_0" dir="l" state="m"/>
    <connection from=":J2_23" to="-E1" fromLane="0" toLane="2" dir="l" state="M"/>

</net>
