<?xml version="1.0" encoding="UTF-8"?>

<net version="1.20" junctionCornerDetail="5" limitTurnSpeed="5.50" xmlns:xsi="http://www.w3.org/2001/XMLSchema-instance" xsi:noNamespaceSchemaLocation="http://sumo.dlr.de/xsd/net_file.xsd">

    <location netOffset="0.00,0.00" convBoundary="-100.00,-100.00,100.00,100.00" origBoundary="10000000000.00,10000000000.00,-10000000000.00,-10000000000.00" projParameter="!"/>

    <edge id=":J0_0" function="internal">
        <lane id=":J0_0_0" index="0" speed="13.89" length="63.55" shape="28.07,-16.76 -16.76,28.07"/>
        <lane id=":J0_0_1" index="1" speed="13.89" length="63.55" shape="28.07,-16.76 -19.02,25.81"/>
        <lane id=":J0_0_2" index="2" speed="13.89" length="63.55" shape="28.07,-16.76 17.38,-7.48 3.39,3.39 -10.59,14.27 -21.29,23.55"/>
    </edge>
    <edge id=":J0_3" function="internal">
        <lane id=":J0_3_0" index="0" speed="13.89" length="65.14" shape="28.07,-16.76 15.14,-5.93 1.08,1.81 -14.09,6.45 -30.38,8.00"/>
        <lane id=":J0_3_1" index="1" speed="13.89" length="62.63" shape="25.81,-19.02 13.37,-8.60 -0.15,-1.16 -14.73,3.31 -30.38,4.80"/>
        <lane id=":J0_3_2" index="2" speed="13.89" length="61.40" shape="25.81,-19.02 14.57,-10.00 1.45,-3.56 -13.53,0.31 -30.38,1.60"/>
    </edge>
    <edge id=":J0_6" function="internal">
        <lane id=":J0_6_0" index="0" speed="9.86" length="35.32" shape="23.55,-21.29 15.19,-16.18 7.03,-16.32 0.85,-21.21 -1.60,-30.38"/>
    </edge>
    <edge id=":J0_7" function="internal">
        <lane id=":J0_7_0" index="0" speed="5.47" length="9.74" shape="11.20,-30.38 11.55,-27.28 12.59,-25.87 14.33,-26.13 16.76,-28.07"/>
    </edge>
    <edge id=":J0_8" function="internal">
        <lane id=":J0_8_0" index="0" speed="13.89" length="65.31" shape="11.20,-30.38 9.31,-17.13 3.64,-3.35 -5.80,10.97 -19.02,25.81"/>
        <lane id=":J0_8_1" index="1" speed="13.89" length="62.80" shape="8.00,-30.38 6.17,-17.77 0.68,-4.58 -8.47,9.20 -21.29,23.55"/>
    </edge>
    <edge id=":J0_10" function="internal">
        <lane id=":J0_10_0" index="0" speed="13.89" length="56.73" shape="4.80,-30.38 2.60,-14.99 -3.99,-3.99 -14.99,2.60 -30.38,4.80"/>
        <lane id=":J0_10_1" index="1" speed="13.89" length="51.57" shape="1.60,-30.38 -0.40,-16.39 -6.39,-6.39 -16.39,-0.40 -30.38,1.60"/>
    </edge>
    <edge id=":J0_12" function="internal">
        <lane id=":J0_12_0" index="0" speed="11.59" length="30.93" shape="-30.38,-11.20 -21.99,-12.40 -15.99,-15.99 -12.40,-21.99 -11.20,-30.38"/>
        <lane id=":J0_12_1" index="1" speed="12.49" length="36.09" shape="-30.38,-8.00 -20.59,-9.40 -13.59,-13.59 -9.40,-20.59 -8.00,-30.38"/>
    </edge>
    <edge id=":J0_14" function="internal">
        <lane id=":J0_14_0" index="0" speed="13.89" length="54.89" shape="-30.38,-4.80 -15.71,-6.59 -2.15,-11.33 9.64,-18.05 19.02,-25.81"/>
    </edge>
    <edge id=":J0_15" function="internal">
        <lane id=":J0_15_0" index="0" speed="9.86" length="1.89" shape="-30.38,-1.60 -28.55,-1.11"/>
    </edge>
    <edge id=":J0_23" function="internal">
        <lane id=":J0_23_0" index="0" speed="9.86" length="33.43" shape="-28.55,-1.11 -21.21,0.85 -16.32,7.03 -16.18,15.19 -21.29,23.55"/>
    </edge>
    <edge id=":J0_16" function="internal">
        <lane id=":J0_16_0" index="0" speed="5.47" length="9.74" shape="-28.07,16.76 -26.13,14.33 -25.87,12.59 -27.28,11.55 -30.38,11.20"/>
    </edge>
    <edge id=":J0_17" function="internal">
        <lane id=":J0_17_0" index="0" speed="13.89" length="53.69" shape="-25.81,19.02 -18.55,9.64 -12.93,-2.15 -9.29,-15.71 -8.00,-30.38"/>
        <lane id=":J0_17_1" index="1" speed="13.89" length="56.37" shape="-23.55,21.29 -15.35,11.03 -9.49,-1.00 -5.97,-14.80 -4.80,-30.38"/>
        <lane id=":J0_17_2" index="2" speed="13.89" length="57.60" shape="-23.55,21.29 -13.95,9.83 -7.09,-2.60 -2.97,-16.00 -1.60,-30.38"/>
    </edge>
    <edge id=":J0_20" function="internal">
        <lane id=":J0_20_0" index="0" speed="13.89" length="63.55" shape="-23.55,21.29 -14.27,10.59 -3.39,-3.39 7.48,-17.38 16.76,-28.07"/>
        <lane id=":J0_20_1" index="1" speed="13.89" length="63.55" shape="-23.55,21.29 19.02,-25.81"/>
        <lane id=":J0_20_2" index="2" speed="13.89" length="63.55" shape="-23.55,21.29 21.29,-23.55"/>
    </edge>

    <edge id="-E0" from="J1" to="J0" priority="-1">
        <lane id="-E0_0" index="0" speed="13.89" length="109.72" shape="-105.66,94.34 -28.07,16.76"/>
        <lane id="-E0_1" index="1" speed="13.89" length="109.72" shape="-103.39,96.61 -25.81,19.02"/>
        <lane id="-E0_2" index="2" speed="13.89" length="109.72" shape="-101.13,98.87 -23.55,21.29"/>
    </edge>
    <edge id="-E1" from="J2" to="J0" priority="-1">
        <lane id="-E1_0" index="0" speed="13.89" length="109.72" shape="105.66,-94.34 28.07,-16.76"/>
        <lane id="-E1_1" index="1" speed="13.89" length="109.72" shape="103.39,-96.61 25.81,-19.02"/>
        <lane id="-E1_2" index="2" speed="13.89" length="109.72" shape="101.13,-98.87 23.55,-21.29"/>
    </edge>
    <edge id="-E2" from="J3" to="J0" priority="-1">
        <lane id="-E2_0" index="0" speed="13.89" length="69.62" shape="11.20,-100.00 11.20,-30.38"/>
        <lane id="-E2_1" index="1" speed="13.89" length="69.62" shape="8.00,-100.00 8.00,-30.38"/>
        <lane id="-E2_2" index="2" speed="13.89" length="69.62" shape="4.80,-100.00 4.80,-30.38"/>
        <lane id="-E2_3" index="3" speed="13.89" length="69.62" shape="1.60,-100.00 1.60,-30.38"/>
    </edge>
    <edge id="-E3" from="J4" to="J0" priority="-1">
        <lane id="-E3_0" index="0" speed="13.89" length="69.62" shape="-100.00,-11.20 -30.38,-11.20"/>
        <lane id="-E3_1" index="1" speed="13.89" length="69.62" shape="-100.00,-8.00 -30.38,-8.00"/>
        <lane id="-E3_2" index="2" speed="13.89" length="69.62" shape="-100.00,-4.80 -30.38,-4.80"/>
        <lane id="-E3_3" index="3" speed="13.89" length="69.62" shape="-100.00,-1.60 -30.38,-1.60"/>
    </edge>
    <edge id="E0" from="J0" to="J1" priority="-1">
        <lane id="E0_0" index="0" speed="13.89" length="109.72" shape="-16.76,28.07 -94.34,105.66"/>
        <lane id="E0_1" index="1" speed="13.89" length="109.72" shape="-19.02,25.81 -96.61,103.39"/>
        <lane id="E0_2" index="2" speed="13.89" length="109.72" shape="-21.29,23.55 -98.87,101.13"/>
    </edge>
    <edge id="E1" from="J0" to="J2" priority="-1">
        <lane id="E1_0" index="0" speed="13.89" length="109.72" shape="16.76,-28.07 94.34,-105.66"/>
        <lane id="E1_1" index="1" speed="13.89" length="109.72" shape="19.02,-25.81 96.61,-103.39"/>
        <lane id="E1_2" index="2" speed="13.89" length="109.72" shape="21.29,-23.55 98.87,-101.13"/>
    </edge>
    <edge id="E2" from="J0" to="J3" priority="-1">
        <lane id="E2_0" index="0" speed="13.89" length="69.62" shape="-11.20,-30.38 -11.20,-100.00"/>
        <lane id="E2_1" index="1" speed="13.89" length="69.62" shape="-8.00,-30.38 -8.00,-100.00"/>
        <lane id="E2_2" index="2" speed="13.89" length="69.62" shape="-4.80,-30.38 -4.80,-100.00"/>
        <lane id="E2_3" index="3" speed="13.89" length="69.62" shape="-1.60,-30.38 -1.60,-100.00"/>
    </edge>
    <edge id="E3" from="J0" to="J4" priority="-1">
        <lane id="E3_0" index="0" speed="13.89" length="69.62" shape="-30.38,11.20 -100.00,11.20"/>
        <lane id="E3_1" index="1" speed="13.89" length="69.62" shape="-30.38,8.00 -100.00,8.00"/>
        <lane id="E3_2" index="2" speed="13.89" length="69.62" shape="-30.38,4.80 -100.00,4.80"/>
        <lane id="E3_3" index="3" speed="13.89" length="69.62" shape="-30.38,1.60 -100.00,1.60"/>
    </edge>

    <junction id="J0" type="priority" x="0.00" y="0.00" incLanes="-E1_0 -E1_1 -E1_2 -E2_0 -E2_1 -E2_2 -E2_3 -E3_0 -E3_1 -E3_2 -E3_3 -E0_0 -E0_1 -E0_2" intLanes=":J0_0_0 :J0_0_1 :J0_0_2 :J0_3_0 :J0_3_1 :J0_3_2 :J0_6_0 :J0_7_0 :J0_8_0 :J0_8_1 :J0_10_0 :J0_10_1 :J0_12_0 :J0_12_1 :J0_14_0 :J0_23_0 :J0_16_0 :J0_17_0 :J0_17_1 :J0_17_2 :J0_20_0 :J0_20_1 :J0_20_2" shape="29.20,-15.63 15.63,-29.20 14.06,-28.08 13.51,-28.08 13.11,-28.47 12.88,-29.23 12.80,-30.38 -12.80,-30.38 -13.29,-25.01 -14.75,-20.61 -17.19,-17.19 -20.61,-14.75 -25.01,-13.29 -30.38,-12.80 -30.38,12.80 -28.47,13.11 -28.08,13.51 -28.08,14.06 -28.45,14.76 -29.20,15.63 -15.63,29.20">
        <request index="0"  response="00000001000001100000000" foes="00000001000001100000000" cont="0"/>
        <request index="1"  response="00000001000001100000000" foes="00000001000001100000000" cont="0"/>
        <request index="2"  response="00000001000001100000000" foes="00000001000001100000000" cont="0"/>
        <request index="3"  response="11111101000111100000000" foes="11111101000111100000000" cont="0"/>
        <request index="4"  response="11111101000111100000000" foes="11111101000111100000000" cont="0"/>
        <request index="5"  response="11111101000111100000000" foes="11111101000111100000000" cont="0"/>
        <request index="6"  response="11111100100111100000000" foes="11111100100111100000000" cont="0"/>
        <request index="7"  response="00000000000000000000000" foes="11100000000000000000000" cont="0"/>
        <request index="8"  response="00000000000000000000000" foes="11100001100000001111111" cont="0"/>
        <request index="9"  response="00000000000000000000000" foes="11100001100000001111111" cont="0"/>
        <request index="10" response="00000000000000000000000" foes="00011101100000001111000" cont="0"/>
        <request index="11" response="00000000000000000000000" foes="00011101100000001111000" cont="0"/>
        <request index="12" response="00000000000000000000000" foes="00011100000000000000000" cont="0"/>
        <request index="13" response="00000000000000000000000" foes="00011100000000000000000" cont="0"/>
        <request index="14" response="00000000000111100000000" foes="11111100000111101000000" cont="0"/>
        <request index="15" response="00000000000111100000000" foes="11111100000111100111111" cont="1"/>
        <request index="16" response="00000000000000000000000" foes="00000000000000000000000" cont="0"/>
        <request index="17" response="00000001111110000000000" foes="00000001111110001111000" cont="0"/>
        <request index="18" response="00000001111110000000000" foes="00000001111110001111000" cont="0"/>
        <request index="19" response="00000001111110000000000" foes="00000001111110001111000" cont="0"/>
        <request index="20" response="00000001100001110000000" foes="00000001100001111111000" cont="0"/>
        <request index="21" response="00000001100001110000000" foes="00000001100001111111000" cont="0"/>
        <request index="22" response="00000001100001110000000" foes="00000001100001111111000" cont="0"/>
    </junction>
    <junction id="J1" type="dead_end" x="-100.00" y="100.00" incLanes="E0_0 E0_1 E0_2" intLanes="" shape="-100.00,100.00 -93.21,106.79 -100.00,100.00"/>
    <junction id="J2" type="dead_end" x="100.00" y="-100.00" incLanes="E1_0 E1_1 E1_2" intLanes="" shape="100.00,-100.00 93.21,-106.79 100.00,-100.00"/>
    <junction id="J3" type="dead_end" x="0.00" y="-100.00" incLanes="E2_0 E2_1 E2_2 E2_3" intLanes="" shape="0.00,-100.00 -12.80,-100.00 0.00,-100.00"/>
    <junction id="J4" type="dead_end" x="-100.00" y="0.00" incLanes="E3_0 E3_1 E3_2 E3_3" intLanes="" shape="-100.00,0.00 -100.00,12.80 -100.00,0.00"/>

    <junction id=":J0_23_0" type="internal" x="-28.55" y="-1.11" incLanes=":J0_15_0 -E2_0 -E2_1 -E2_2 -E2_3" intLanes=":J0_0_0 :J0_0_1 :J0_0_2 :J0_3_0 :J0_3_1 :J0_3_2 :J0_8_0 :J0_8_1 :J0_10_0 :J0_10_1 :J0_17_0 :J0_17_1 :J0_17_2 :J0_20_0 :J0_20_1 :J0_20_2"/>

    <connection from="-E0" to="E3" fromLane="0" toLane="0" via=":J0_16_0" dir="r" state="M"/>
    <connection from="-E0" to="E2" fromLane="1" toLane="1" via=":J0_17_0" dir="R" state="m"/>
    <connection from="-E0" to="E2" fromLane="2" toLane="2" via=":J0_17_1" dir="R" state="m"/>
    <connection from="-E0" to="E2" fromLane="2" toLane="3" via=":J0_17_2" dir="R" state="m"/>
    <connection from="-E0" to="E1" fromLane="2" toLane="0" via=":J0_20_0" dir="s" state="m"/>
    <connection from="-E0" to="E1" fromLane="2" toLane="1" via=":J0_20_1" dir="s" state="m"/>
    <connection from="-E0" to="E1" fromLane="2" toLane="2" via=":J0_20_2" dir="s" state="m"/>
    <connection from="-E1" to="E0" fromLane="0" toLane="0" via=":J0_0_0" dir="s" state="m"/>
    <connection from="-E1" to="E0" fromLane="0" toLane="1" via=":J0_0_1" dir="s" state="m"/>
    <connection from="-E1" to="E0" fromLane="0" toLane="2" via=":J0_0_2" dir="s" state="m"/>
    <connection from="-E1" to="E3" fromLane="0" toLane="1" via=":J0_3_0" dir="L" state="m"/>
    <connection from="-E1" to="E3" fromLane="1" toLane="2" via=":J0_3_1" dir="L" state="m"/>
    <connection from="-E1" to="E3" fromLane="1" toLane="3" via=":J0_3_2" dir="L" state="m"/>
    <connection from="-E1" to="E2" fromLane="2" toLane="3" via=":J0_6_0" dir="l" state="m"/>
    <connection from="-E2" to="E1" fromLane="0" toLane="0" via=":J0_7_0" dir="r" state="M"/>
    <connection from="-E2" to="E0" fromLane="0" toLane="1" via=":J0_8_0" dir="L" state="M"/>
    <connection from="-E2" to="E0" fromLane="1" toLane="2" via=":J0_8_1" dir="L" state="M"/>
    <connection from="-E2" to="E3" fromLane="2" toLane="2" via=":J0_10_0" dir="l" state="M"/>
    <connection from="-E2" to="E3" fromLane="3" toLane="3" via=":J0_10_1" dir="l" state="M"/>
    <connection from="-E3" to="E2" fromLane="0" toLane="0" via=":J0_12_0" dir="r" state="M"/>
    <connection from="-E3" to="E2" fromLane="1" toLane="1" via=":J0_12_1" dir="r" state="M"/>
    <connection from="-E3" to="E1" fromLane="2" toLane="1" via=":J0_14_0" dir="R" state="m"/>
    <connection from="-E3" to="E0" fromLane="3" toLane="2" via=":J0_15_0" dir="l" state="m"/>

    <connection from=":J0_0" to="E0" fromLane="0" toLane="0" dir="s" state="M"/>
    <connection from=":J0_0" to="E0" fromLane="1" toLane="1" dir="s" state="M"/>
    <connection from=":J0_0" to="E0" fromLane="2" toLane="2" dir="s" state="M"/>
    <connection from=":J0_3" to="E3" fromLane="0" toLane="1" dir="L" state="M"/>
    <connection from=":J0_3" to="E3" fromLane="1" toLane="2" dir="L" state="M"/>
    <connection from=":J0_3" to="E3" fromLane="2" toLane="3" dir="L" state="M"/>
    <connection from=":J0_6" to="E2" fromLane="0" toLane="3" dir="l" state="M"/>
    <connection from=":J0_7" to="E1" fromLane="0" toLane="0" dir="r" state="M"/>
    <connection from=":J0_8" to="E0" fromLane="0" toLane="1" dir="L" state="M"/>
    <connection from=":J0_8" to="E0" fromLane="1" toLane="2" dir="L" state="M"/>
    <connection from=":J0_10" to="E3" fromLane="0" toLane="2" dir="l" state="M"/>
    <connection from=":J0_10" to="E3" fromLane="1" toLane="3" dir="l" state="M"/>
    <connection from=":J0_12" to="E2" fromLane="0" toLane="0" dir="r" state="M"/>
    <connection from=":J0_12" to="E2" fromLane="1" toLane="1" dir="r" state="M"/>
    <connection from=":J0_14" to="E1" fromLane="0" toLane="1" dir="R" state="M"/>
    <connection from=":J0_15" to="E0" fromLane="0" toLane="2" via=":J0_23_0" dir="l" state="m"/>
    <connection from=":J0_23" to="E0" fromLane="0" toLane="2" dir="l" state="M"/>
    <connection from=":J0_16" to="E3" fromLane="0" toLane="0" dir="r" state="M"/>
    <connection from=":J0_17" to="E2" fromLane="0" toLane="1" dir="R" state="M"/>
    <connection from=":J0_17" to="E2" fromLane="1" toLane="2" dir="R" state="M"/>
    <connection from=":J0_17" to="E2" fromLane="2" toLane="3" dir="R" state="M"/>
    <connection from=":J0_20" to="E1" fromLane="0" toLane="0" dir="s" state="M"/>
    <connection from=":J0_20" to="E1" fromLane="1" toLane="1" dir="s" state="M"/>
    <connection from=":J0_20" to="E1" fromLane="2" toLane="2" dir="s" state="M"/>

</net>
