<?xml version="1.0" encoding="UTF-8"?>

<net version="1.20" junctionCornerDetail="5" limitTurnSpeed="5.50" xmlns:xsi="http://www.w3.org/2001/XMLSchema-instance" xsi:noNamespaceSchemaLocation="http://sumo.dlr.de/xsd/net_file.xsd">

    <location netOffset="0.00,0.00" convBoundary="-100.00,-100.00,100.00,100.00" origBoundary="10000000000.00,10000000000.00,-10000000000.00,-10000000000.00" projParameter="!"/>

    <edge id=":J0_0" function="internal">
        <lane id=":J0_0_0" index="0" speed="13.89" length="60.75" shape="29.40,-13.56 -13.56,29.40"/>
        <lane id=":J0_0_1" index="1" speed="13.89" length="60.75" shape="27.14,-15.82 -15.82,27.14"/>
        <lane id=":J0_0_2" index="2" speed="13.89" length="60.75" shape="24.87,-18.09 -18.09,24.87"/>
        <lane id=":J0_0_3" index="3" speed="13.89" length="60.75" shape="22.61,-20.35 -20.35,22.61"/>
    </edge>
    <edge id=":J0_4" function="internal">
        <lane id=":J0_4_0" index="0" speed="13.89" length="9.21" shape="22.61,-20.35 15.62,-14.35"/>
    </edge>
    <edge id=":J0_5" function="internal">
        <lane id=":J0_5_0" index="0" speed="9.86" length="2.83" shape="22.61,-20.35 20.16,-18.93"/>
    </edge>
    <edge id=":J0_22" function="internal">
        <lane id=":J0_22_0" index="0" speed="13.89" length="52.19" shape="15.62,-14.35 9.79,-9.35 -3.54,-1.49 -17.37,3.23 -31.70,4.80"/>
    </edge>
    <edge id=":J0_23" function="internal">
        <lane id=":J0_23_0" index="0" speed="9.86" length="32.49" shape="20.16,-18.93 14.40,-15.60 6.57,-16.51 0.71,-22.18 -1.60,-31.70"/>
    </edge>
    <edge id=":J0_6" function="internal">
        <lane id=":J0_6_0" index="0" speed="5.47" length="9.74" shape="8.00,-31.70 8.35,-28.61 9.39,-27.19 11.13,-27.46 13.56,-29.40"/>
    </edge>
    <edge id=":J0_7" function="internal">
        <lane id=":J0_7_0" index="0" speed="13.89" length="63.93" shape="4.80,-31.70 3.51,-13.69 -0.36,2.12 -6.80,15.73 -15.82,27.14"/>
        <lane id=":J0_7_1" index="1" speed="13.89" length="61.42" shape="1.60,-31.70 0.37,-14.33 -3.32,0.89 -9.47,13.96 -18.09,24.87"/>
        <lane id=":J0_7_2" index="2" speed="13.89" length="60.12" shape="1.60,-31.70 0.23,-16.17 -3.89,-1.94 -10.75,10.99 -20.35,22.61"/>
    </edge>
    <edge id=":J0_10" function="internal">
        <lane id=":J0_10_0" index="0" speed="13.89" length="53.71" shape="1.60,-31.70 -0.48,-17.13 -6.73,-6.73 -17.13,-0.48 -31.70,1.60"/>
    </edge>
    <edge id=":J0_11" function="internal">
        <lane id=":J0_11_0" index="0" speed="12.85" length="38.23" shape="-31.70,-8.00 -21.33,-9.48 -13.93,-13.93 -9.48,-21.33 -8.00,-31.70"/>
    </edge>
    <edge id=":J0_12" function="internal">
        <lane id=":J0_12_0" index="0" speed="13.89" length="52.58" shape="-31.70,-8.00 -18.09,-9.20 -5.63,-12.78 5.68,-18.76 15.82,-27.14"/>
        <lane id=":J0_12_1" index="1" speed="13.89" length="54.89" shape="-31.70,-4.80 -19.58,-5.95 -6.49,-9.53 6.45,-15.77 18.09,-24.87"/>
        <lane id=":J0_12_2" index="2" speed="13.89" length="56.26" shape="-31.70,-4.80 -19.23,-5.59 -5.36,-8.40 8.36,-13.86 20.35,-22.61"/>
    </edge>
    <edge id=":J0_15" function="internal">
        <lane id=":J0_15_0" index="0" speed="9.86" length="35.32" shape="-31.70,-1.60 -22.18,0.71 -16.51,6.57 -15.60,14.40 -20.35,22.61"/>
    </edge>
    <edge id=":J0_16" function="internal">
        <lane id=":J0_16_0" index="0" speed="5.47" length="9.74" shape="-29.40,13.56 -27.46,11.13 -27.19,9.39 -28.61,8.35 -31.70,8.00"/>
    </edge>
    <edge id=":J0_17" function="internal">
        <lane id=":J0_17_0" index="0" speed="13.89" length="52.67" shape="-29.40,13.56 -19.59,2.63 -11.80,-8.75 -6.65,-20.29 -4.80,-31.70"/>
    </edge>
    <edge id=":J0_18" function="internal">
        <lane id=":J0_18_0" index="0" speed="13.89" length="60.75" shape="-29.40,13.56 13.56,-29.40"/>
        <lane id=":J0_18_1" index="1" speed="13.89" length="60.75" shape="-27.14,15.82 15.82,-27.14"/>
        <lane id=":J0_18_2" index="2" speed="13.89" length="60.75" shape="-24.87,18.09 18.09,-24.87"/>
        <lane id=":J0_18_3" index="3" speed="13.89" length="60.75" shape="-22.61,20.35 20.35,-22.61"/>
    </edge>

    <edge id="-E0" from="J1" to="J0" priority="-1">
        <lane id="-E0_0" index="0" speed="13.89" length="111.04" shape="-107.92,92.08 -29.40,13.56"/>
        <lane id="-E0_1" index="1" speed="13.89" length="111.04" shape="-105.66,94.34 -27.14,15.82"/>
        <lane id="-E0_2" index="2" speed="13.89" length="111.04" shape="-103.39,96.61 -24.87,18.09"/>
        <lane id="-E0_3" index="3" speed="13.89" length="111.04" shape="-101.13,98.87 -22.61,20.35"/>
    </edge>
    <edge id="-E1" from="J2" to="J0" priority="-1">
        <lane id="-E1_0" index="0" speed="13.89" length="111.04" shape="107.92,-92.08 29.40,-13.56"/>
        <lane id="-E1_1" index="1" speed="13.89" length="111.04" shape="105.66,-94.34 27.14,-15.82"/>
        <lane id="-E1_2" index="2" speed="13.89" length="111.04" shape="103.39,-96.61 24.87,-18.09"/>
        <lane id="-E1_3" index="3" speed="13.89" length="111.04" shape="101.13,-98.87 22.61,-20.35"/>
    </edge>
    <edge id="-E2" from="J3" to="J0" priority="-1">
        <lane id="-E2_0" index="0" speed="13.89" length="68.30" shape="8.00,-100.00 8.00,-31.70"/>
        <lane id="-E2_1" index="1" speed="13.89" length="68.30" shape="4.80,-100.00 4.80,-31.70"/>
        <lane id="-E2_2" index="2" speed="13.89" length="68.30" shape="1.60,-100.00 1.60,-31.70"/>
    </edge>
    <edge id="-E3" from="J4" to="J0" priority="-1">
        <lane id="-E3_0" index="0" speed="13.89" length="68.30" shape="-100.00,-8.00 -31.70,-8.00"/>
        <lane id="-E3_1" index="1" speed="13.89" length="68.30" shape="-100.00,-4.80 -31.70,-4.80"/>
        <lane id="-E3_2" index="2" speed="13.89" length="68.30" shape="-100.00,-1.60 -31.70,-1.60"/>
    </edge>
    <edge id="E0" from="J0" to="J1" priority="-1">
        <lane id="E0_0" index="0" speed="13.89" length="111.04" shape="-13.56,29.40 -92.08,107.92"/>
        <lane id="E0_1" index="1" speed="13.89" length="111.04" shape="-15.82,27.14 -94.34,105.66"/>
        <lane id="E0_2" index="2" speed="13.89" length="111.04" shape="-18.09,24.87 -96.61,103.39"/>
        <lane id="E0_3" index="3" speed="13.89" length="111.04" shape="-20.35,22.61 -98.87,101.13"/>
    </edge>
    <edge id="E1" from="J0" to="J2" priority="-1">
        <lane id="E1_0" index="0" speed="13.89" length="111.04" shape="13.56,-29.40 92.08,-107.92"/>
        <lane id="E1_1" index="1" speed="13.89" length="111.04" shape="15.82,-27.14 94.34,-105.66"/>
        <lane id="E1_2" index="2" speed="13.89" length="111.04" shape="18.09,-24.87 96.61,-103.39"/>
        <lane id="E1_3" index="3" speed="13.89" length="111.04" shape="20.35,-22.61 98.87,-101.13"/>
    </edge>
    <edge id="E2" from="J0" to="J3" priority="-1">
        <lane id="E2_0" index="0" speed="13.89" length="68.30" shape="-8.00,-31.70 -8.00,-100.00"/>
        <lane id="E2_1" index="1" speed="13.89" length="68.30" shape="-4.80,-31.70 -4.80,-100.00"/>
        <lane id="E2_2" index="2" speed="13.89" length="68.30" shape="-1.60,-31.70 -1.60,-100.00"/>
    </edge>
    <edge id="E3" from="J0" to="J4" priority="-1">
        <lane id="E3_0" index="0" speed="13.89" length="68.30" shape="-31.70,8.00 -100.00,8.00"/>
        <lane id="E3_1" index="1" speed="13.89" length="68.30" shape="-31.70,4.80 -100.00,4.80"/>
        <lane id="E3_2" index="2" speed="13.89" length="68.30" shape="-31.70,1.60 -100.00,1.60"/>
    </edge>

    <junction id="J0" type="priority" x="0.00" y="0.00" incLanes="-E1_0 -E1_1 -E1_2 -E1_3 -E2_0 -E2_1 -E2_2 -E3_0 -E3_1 -E3_2 -E0_0 -E0_1 -E0_2 -E0_3" intLanes=":J0_0_0 :J0_0_1 :J0_0_2 :J0_0_3 :J0_22_0 :J0_23_0 :J0_6_0 :J0_7_0 :J0_7_1 :J0_7_2 :J0_10_0 :J0_11_0 :J0_12_0 :J0_12_1 :J0_12_2 :J0_15_0 :J0_16_0 :J0_17_0 :J0_18_0 :J0_18_1 :J0_18_2 :J0_18_3" shape="30.53,-12.43 12.43,-30.53 10.86,-29.40 10.31,-29.41 9.91,-29.79 9.68,-30.56 9.60,-31.70 -9.60,-31.70 -10.21,-24.95 -12.06,-19.42 -15.13,-15.13 -19.42,-12.06 -24.95,-10.21 -31.70,-9.60 -31.70,9.60 -29.79,9.91 -29.41,10.31 -29.40,10.86 -29.78,11.56 -30.53,12.43 -12.43,30.53">
        <request index="0"  response="0000000000000000000000" foes="0000001000001110000000" cont="0"/>
        <request index="1"  response="0000000000000000000000" foes="0000001000001110000000" cont="0"/>
        <request index="2"  response="0000000000000000000000" foes="0000001000001110000000" cont="0"/>
        <request index="3"  response="0000000000000000000000" foes="0000001000001110000000" cont="0"/>
        <request index="4"  response="1111100000000000000000" foes="1111101000001110000000" cont="1"/>
        <request index="5"  response="1111000000000000000000" foes="1111000111011110000000" cont="1"/>
        <request index="6"  response="1111000000000000000000" foes="1111000000000000000000" cont="0"/>
        <request index="7"  response="1111000000000000111111" foes="1111001111000000111111" cont="0"/>
        <request index="8"  response="1111000000000000111111" foes="1111001111000000111111" cont="0"/>
        <request index="9"  response="1111000000000000111111" foes="1111001111000000111111" cont="0"/>
        <request index="10" response="0000100000000000100000" foes="0000101111000000100000" cont="0"/>
        <request index="11" response="0000000000000000000000" foes="0000000000000000000000" cont="0"/>
        <request index="12" response="1111100000011110100000" foes="1111100000011110100000" cont="0"/>
        <request index="13" response="1111100000011110100000" foes="1111100000011110100000" cont="0"/>
        <request index="14" response="1111100000011110100000" foes="1111100000011110100000" cont="0"/>
        <request index="15" response="1111100000011110011111" foes="1111100000011110011111" cont="0"/>
        <request index="16" response="0000000000000000000000" foes="0000000000000000000000" cont="0"/>
        <request index="17" response="0000000000000000000000" foes="0000001111010000010000" cont="0"/>
        <request index="18" response="0000000000000000000000" foes="0000001111001111110000" cont="0"/>
        <request index="19" response="0000000000000000000000" foes="0000001111001111110000" cont="0"/>
        <request index="20" response="0000000000000000000000" foes="0000001111001111110000" cont="0"/>
        <request index="21" response="0000000000000000000000" foes="0000001111001111110000" cont="0"/>
    </junction>
    <junction id="J1" type="dead_end" x="-100.00" y="100.00" incLanes="E0_0 E0_1 E0_2 E0_3" intLanes="" shape="-100.00,100.00 -90.95,109.05 -100.00,100.00"/>
    <junction id="J2" type="dead_end" x="100.00" y="-100.00" incLanes="E1_0 E1_1 E1_2 E1_3" intLanes="" shape="100.00,-100.00 90.95,-109.05 100.00,-100.00"/>
    <junction id="J3" type="dead_end" x="0.00" y="-100.00" incLanes="E2_0 E2_1 E2_2" intLanes="" shape="0.00,-100.00 -9.60,-100.00 0.00,-100.00"/>
    <junction id="J4" type="dead_end" x="-100.00" y="0.00" incLanes="E3_0 E3_1 E3_2" intLanes="" shape="-100.00,0.00 -100.00,9.60 -100.00,0.00"/>

    <junction id=":J0_22_0" type="internal" x="15.62" y="-14.35" incLanes=":J0_4_0 -E0_0 -E0_1 -E0_2 -E0_3" intLanes=":J0_7_0 :J0_7_1 :J0_7_2 :J0_15_0 :J0_17_0 :J0_18_0 :J0_18_1 :J0_18_2 :J0_18_3"/>
    <junction id=":J0_23_0" type="internal" x="20.16" y="-18.93" incLanes=":J0_5_0 -E0_0 -E0_1 -E0_2 -E0_3" intLanes=":J0_7_0 :J0_7_1 :J0_7_2 :J0_10_0 :J0_12_0 :J0_12_1 :J0_12_2 :J0_18_0 :J0_18_1 :J0_18_2 :J0_18_3"/>

    <connection from="-E0" to="E3" fromLane="0" toLane="0" via=":J0_16_0" dir="r" state="M"/>
    <connection from="-E0" to="E2" fromLane="0" toLane="1" via=":J0_17_0" dir="R" state="M"/>
    <connection from="-E0" to="E1" fromLane="0" toLane="0" via=":J0_18_0" dir="s" state="M"/>
    <connection from="-E0" to="E1" fromLane="1" toLane="1" via=":J0_18_1" dir="s" state="M"/>
    <connection from="-E0" to="E1" fromLane="2" toLane="2" via=":J0_18_2" dir="s" state="M"/>
    <connection from="-E0" to="E1" fromLane="3" toLane="3" via=":J0_18_3" dir="s" state="M"/>
    <connection from="-E1" to="E0" fromLane="0" toLane="0" via=":J0_0_0" dir="s" state="M"/>
    <connection from="-E1" to="E0" fromLane="1" toLane="1" via=":J0_0_1" dir="s" state="M"/>
    <connection from="-E1" to="E0" fromLane="2" toLane="2" via=":J0_0_2" dir="s" state="M"/>
    <connection from="-E1" to="E0" fromLane="3" toLane="3" via=":J0_0_3" dir="s" state="M"/>
    <connection from="-E1" to="E3" fromLane="3" toLane="1" via=":J0_4_0" dir="L" state="m"/>
    <connection from="-E1" to="E2" fromLane="3" toLane="2" via=":J0_5_0" dir="l" state="m"/>
    <connection from="-E2" to="E1" fromLane="0" toLane="0" via=":J0_6_0" dir="r" state="m"/>
    <connection from="-E2" to="E0" fromLane="1" toLane="1" via=":J0_7_0" dir="L" state="m"/>
    <connection from="-E2" to="E0" fromLane="2" toLane="2" via=":J0_7_1" dir="L" state="m"/>
    <connection from="-E2" to="E0" fromLane="2" toLane="3" via=":J0_7_2" dir="L" state="m"/>
    <connection from="-E2" to="E3" fromLane="2" toLane="2" via=":J0_10_0" dir="l" state="m"/>
    <connection from="-E3" to="E2" fromLane="0" toLane="0" via=":J0_11_0" dir="r" state="M"/>
    <connection from="-E3" to="E1" fromLane="0" toLane="1" via=":J0_12_0" dir="R" state="m"/>
    <connection from="-E3" to="E1" fromLane="1" toLane="2" via=":J0_12_1" dir="R" state="m"/>
    <connection from="-E3" to="E1" fromLane="1" toLane="3" via=":J0_12_2" dir="R" state="m"/>
    <connection from="-E3" to="E0" fromLane="2" toLane="3" via=":J0_15_0" dir="l" state="m"/>

    <connection from=":J0_0" to="E0" fromLane="0" toLane="0" dir="s" state="M"/>
    <connection from=":J0_0" to="E0" fromLane="1" toLane="1" dir="s" state="M"/>
    <connection from=":J0_0" to="E0" fromLane="2" toLane="2" dir="s" state="M"/>
    <connection from=":J0_0" to="E0" fromLane="3" toLane="3" dir="s" state="M"/>
    <connection from=":J0_4" to="E3" fromLane="0" toLane="1" via=":J0_22_0" dir="L" state="m"/>
    <connection from=":J0_22" to="E3" fromLane="0" toLane="1" dir="L" state="M"/>
    <connection from=":J0_5" to="E2" fromLane="0" toLane="2" via=":J0_23_0" dir="l" state="m"/>
    <connection from=":J0_23" to="E2" fromLane="0" toLane="2" dir="l" state="M"/>
    <connection from=":J0_6" to="E1" fromLane="0" toLane="0" dir="r" state="M"/>
    <connection from=":J0_7" to="E0" fromLane="0" toLane="1" dir="L" state="M"/>
    <connection from=":J0_7" to="E0" fromLane="1" toLane="2" dir="L" state="M"/>
    <connection from=":J0_7" to="E0" fromLane="2" toLane="3" dir="L" state="M"/>
    <connection from=":J0_10" to="E3" fromLane="0" toLane="2" dir="l" state="M"/>
    <connection from=":J0_11" to="E2" fromLane="0" toLane="0" dir="r" state="M"/>
    <connection from=":J0_12" to="E1" fromLane="0" toLane="1" dir="R" state="M"/>
    <connection from=":J0_12" to="E1" fromLane="1" toLane="2" dir="R" state="M"/>
    <connection from=":J0_12" to="E1" fromLane="2" toLane="3" dir="R" state="M"/>
    <connection from=":J0_15" to="E0" fromLane="0" toLane="3" dir="l" state="M"/>
    <connection from=":J0_16" to="E3" fromLane="0" toLane="0" dir="r" state="M"/>
    <connection from=":J0_17" to="E2" fromLane="0" toLane="1" dir="R" state="M"/>
    <connection from=":J0_18" to="E1" fromLane="0" toLane="0" dir="s" state="M"/>
    <connection from=":J0_18" to="E1" fromLane="1" toLane="1" dir="s" state="M"/>
    <connection from=":J0_18" to="E1" fromLane="2" toLane="2" dir="s" state="M"/>
    <connection from=":J0_18" to="E1" fromLane="3" toLane="3" dir="s" state="M"/>

</net>
