<?xml version="1.0" encoding="UTF-8"?>

<net version="1.20" junctionCornerDetail="5" limitTurnSpeed="5.50" xmlns:xsi="http://www.w3.org/2001/XMLSchema-instance" xsi:noNamespaceSchemaLocation="http://sumo.dlr.de/xsd/net_file.xsd">

    <location netOffset="0.00,0.00" convBoundary="-100.00,-100.00,100.00,100.00" origBoundary="10000000000.00,10000000000.00,-10000000000.00,-10000000000.00" projParameter="!"/>

    <edge id=":J0_0" function="internal">
        <lane id=":J0_0_0" index="0" speed="13.89" length="51.28" shape="31.70,8.00 20.29,9.35 8.75,13.40 -2.63,20.09 -13.56,29.40"/>
    </edge>
    <edge id=":J0_1" function="internal">
        <lane id=":J0_1_0" index="0" speed="13.89" length="63.40" shape="31.70,8.00 -31.70,8.00"/>
        <lane id=":J0_1_1" index="1" speed="13.89" length="63.40" shape="31.70,4.80 -31.70,4.80"/>
        <lane id=":J0_1_2" index="2" speed="13.89" length="63.40" shape="31.70,1.60 -31.70,1.60"/>
    </edge>
    <edge id=":J0_4" function="internal">
        <lane id=":J0_4_0" index="0" speed="9.86" length="35.32" shape="31.70,1.60 22.18,-0.71 16.51,-6.57 15.60,-14.40 20.35,-22.61"/>
    </edge>
    <edge id=":J0_5" function="internal">
        <lane id=":J0_5_0" index="0" speed="5.47" length="9.74" shape="29.40,-13.56 27.46,-11.13 27.19,-9.39 28.61,-8.35 31.70,-8.00"/>
    </edge>
    <edge id=":J0_6" function="internal">
        <lane id=":J0_6_0" index="0" speed="13.89" length="60.75" shape="29.40,-13.56 -13.56,29.40"/>
        <lane id=":J0_6_1" index="1" speed="13.89" length="60.75" shape="27.14,-15.82 -15.82,27.14"/>
        <lane id=":J0_6_2" index="2" speed="13.89" length="60.75" shape="24.87,-18.09 -18.09,24.87"/>
        <lane id=":J0_6_3" index="3" speed="13.89" length="60.75" shape="22.61,-20.35 -20.35,22.61"/>
    </edge>
    <edge id=":J0_10" function="internal">
        <lane id=":J0_10_0" index="0" speed="13.89" length="7.42" shape="22.61,-20.35 16.89,-15.62"/>
    </edge>
    <edge id=":J0_22" function="internal">
        <lane id=":J0_22_0" index="0" speed="13.89" length="52.69" shape="16.89,-15.62 10.99,-10.75 -1.94,-3.89 -16.17,0.23 -31.70,1.60"/>
    </edge>
    <edge id=":J0_11" function="internal">
        <lane id=":J0_11_0" index="0" speed="13.89" length="51.28" shape="-31.70,-8.00 -20.29,-9.35 -8.75,-13.40 2.63,-20.09 13.56,-29.40"/>
    </edge>
    <edge id=":J0_12" function="internal">
        <lane id=":J0_12_0" index="0" speed="13.89" length="63.40" shape="-31.70,-8.00 31.70,-8.00"/>
        <lane id=":J0_12_1" index="1" speed="13.89" length="63.40" shape="-31.70,-4.80 31.70,-4.80"/>
        <lane id=":J0_12_2" index="2" speed="13.89" length="63.40" shape="-31.70,-1.60 31.70,-1.60"/>
    </edge>
    <edge id=":J0_15" function="internal">
        <lane id=":J0_15_0" index="0" speed="9.86" length="35.32" shape="-31.70,-1.60 -22.18,0.71 -16.51,6.57 -15.60,14.40 -20.35,22.61"/>
    </edge>
    <edge id=":J0_16" function="internal">
        <lane id=":J0_16_0" index="0" speed="5.47" length="9.74" shape="-29.40,13.56 -27.46,11.13 -27.19,9.39 -28.61,8.35 -31.70,8.00"/>
    </edge>
    <edge id=":J0_17" function="internal">
        <lane id=":J0_17_0" index="0" speed="13.89" length="60.75" shape="-29.40,13.56 13.56,-29.40"/>
        <lane id=":J0_17_1" index="1" speed="13.89" length="60.75" shape="-27.14,15.82 15.82,-27.14"/>
        <lane id=":J0_17_2" index="2" speed="13.89" length="60.75" shape="-24.87,18.09 18.09,-24.87"/>
        <lane id=":J0_17_3" index="3" speed="13.89" length="60.75" shape="-22.61,20.35 20.35,-22.61"/>
    </edge>
    <edge id=":J0_21" function="internal">
        <lane id=":J0_21_0" index="0" speed="13.89" length="7.42" shape="-22.61,20.35 -16.89,15.62"/>
    </edge>
    <edge id=":J0_23" function="internal">
        <lane id=":J0_23_0" index="0" speed="13.89" length="52.69" shape="-16.89,15.62 -10.99,10.75 1.94,3.89 16.17,-0.23 31.70,-1.60"/>
    </edge>

    <edge id="-E0" from="J1" to="J0" priority="-1">
        <lane id="-E0_0" index="0" speed="13.89" length="111.04" shape="-107.92,92.08 -29.40,13.56"/>
        <lane id="-E0_1" index="1" speed="13.89" length="111.04" shape="-105.66,94.34 -27.14,15.82"/>
        <lane id="-E0_2" index="2" speed="13.89" length="111.04" shape="-103.39,96.61 -24.87,18.09"/>
        <lane id="-E0_3" index="3" speed="13.89" length="111.04" shape="-101.13,98.87 -22.61,20.35"/>
    </edge>
    <edge id="-E1" from="J2" to="J0" priority="-1">
        <lane id="-E1_0" index="0" speed="13.89" length="111.04" shape="107.92,-92.08 29.40,-13.56"/>
        <lane id="-E1_1" index="1" speed="13.89" length="111.04" shape="105.66,-94.34 27.14,-15.82"/>
        <lane id="-E1_2" index="2" speed="13.89" length="111.04" shape="103.39,-96.61 24.87,-18.09"/>
        <lane id="-E1_3" index="3" speed="13.89" length="111.04" shape="101.13,-98.87 22.61,-20.35"/>
    </edge>
    <edge id="-E2" from="J3" to="J0" priority="-1">
        <lane id="-E2_0" index="0" speed="13.89" length="68.30" shape="-100.00,-8.00 -31.70,-8.00"/>
        <lane id="-E2_1" index="1" speed="13.89" length="68.30" shape="-100.00,-4.80 -31.70,-4.80"/>
        <lane id="-E2_2" index="2" speed="13.89" length="68.30" shape="-100.00,-1.60 -31.70,-1.60"/>
    </edge>
    <edge id="-E3" from="J4" to="J0" priority="-1">
        <lane id="-E3_0" index="0" speed="13.89" length="68.30" shape="100.00,8.00 31.70,8.00"/>
        <lane id="-E3_1" index="1" speed="13.89" length="68.30" shape="100.00,4.80 31.70,4.80"/>
        <lane id="-E3_2" index="2" speed="13.89" length="68.30" shape="100.00,1.60 31.70,1.60"/>
    </edge>
    <edge id="E0" from="J0" to="J1" priority="-1">
        <lane id="E0_0" index="0" speed="13.89" length="111.04" shape="-13.56,29.40 -92.08,107.92"/>
        <lane id="E0_1" index="1" speed="13.89" length="111.04" shape="-15.82,27.14 -94.34,105.66"/>
        <lane id="E0_2" index="2" speed="13.89" length="111.04" shape="-18.09,24.87 -96.61,103.39"/>
        <lane id="E0_3" index="3" speed="13.89" length="111.04" shape="-20.35,22.61 -98.87,101.13"/>
    </edge>
    <edge id="E1" from="J0" to="J2" priority="-1">
        <lane id="E1_0" index="0" speed="13.89" length="111.04" shape="13.56,-29.40 92.08,-107.92"/>
        <lane id="E1_1" index="1" speed="13.89" length="111.04" shape="15.82,-27.14 94.34,-105.66"/>
        <lane id="E1_2" index="2" speed="13.89" length="111.04" shape="18.09,-24.87 96.61,-103.39"/>
        <lane id="E1_3" index="3" speed="13.89" length="111.04" shape="20.35,-22.61 98.87,-101.13"/>
    </edge>
    <edge id="E2" from="J0" to="J3" priority="-1">
        <lane id="E2_0" index="0" speed="13.89" length="68.30" shape="-31.70,8.00 -100.00,8.00"/>
        <lane id="E2_1" index="1" speed="13.89" length="68.30" shape="-31.70,4.80 -100.00,4.80"/>
        <lane id="E2_2" index="2" speed="13.89" length="68.30" shape="-31.70,1.60 -100.00,1.60"/>
    </edge>
    <edge id="E3" from="J0" to="J4" priority="-1">
        <lane id="E3_0" index="0" speed="13.89" length="68.30" shape="31.70,-8.00 100.00,-8.00"/>
        <lane id="E3_1" index="1" speed="13.89" length="68.30" shape="31.70,-4.80 100.00,-4.80"/>
        <lane id="E3_2" index="2" speed="13.89" length="68.30" shape="31.70,-1.60 100.00,-1.60"/>
    </edge>

    <junction id="J0" type="priority" x="0.00" y="0.00" incLanes="-E3_0 -E3_1 -E3_2 -E1_0 -E1_1 -E1_2 -E1_3 -E2_0 -E2_1 -E2_2 -E0_0 -E0_1 -E0_2 -E0_3" intLanes=":J0_0_0 :J0_1_0 :J0_1_1 :J0_1_2 :J0_4_0 :J0_5_0 :J0_6_0 :J0_6_1 :J0_6_2 :J0_6_3 :J0_22_0 :J0_11_0 :J0_12_0 :J0_12_1 :J0_12_2 :J0_15_0 :J0_16_0 :J0_17_0 :J0_17_1 :J0_17_2 :J0_17_3 :J0_23_0" shape="31.70,9.60 31.70,-9.60 29.79,-9.91 29.41,-10.31 29.40,-10.86 29.78,-11.56 30.53,-12.43 12.43,-30.53 5.39,-24.13 -1.78,-18.90 -9.07,-14.83 -16.49,-11.93 -24.03,-10.18 -31.70,-9.60 -31.70,9.60 -29.79,9.91 -29.41,10.31 -29.40,10.86 -29.78,11.56 -30.53,12.43 -12.43,30.53 -5.39,24.13 1.78,18.90 9.07,14.83 16.49,11.93 24.03,10.18">
        <request index="0"  response="0000000000001111000000" foes="0000000000001111000000" cont="0"/>
        <request index="1"  response="1111110000011111000000" foes="1111111000011111000000" cont="0"/>
        <request index="2"  response="1111110000011111000000" foes="1111111000011111000000" cont="0"/>
        <request index="3"  response="1111110000011111000000" foes="1111111000011111000000" cont="0"/>
        <request index="4"  response="1111100111011111000000" foes="1111100111011111000000" cont="0"/>
        <request index="5"  response="0000000000000000000000" foes="0000000111000000000000" cont="0"/>
        <request index="6"  response="0000000000000000000000" foes="1000001111000000011111" cont="0"/>
        <request index="7"  response="0000000000000000000000" foes="1000001111000000011111" cont="0"/>
        <request index="8"  response="0000000000000000000000" foes="1000001111000000011111" cont="0"/>
        <request index="9"  response="0000000000000000000000" foes="1000001111000000011111" cont="0"/>
        <request index="10" response="0111100000000000000000" foes="0111101111000000011110" cont="1"/>
        <request index="11" response="0111100000000000000000" foes="0111100000000000000000" cont="0"/>
        <request index="12" response="1111100000011111100000" foes="1111100000011111110000" cont="0"/>
        <request index="13" response="1111100000011111100000" foes="1111100000011111110000" cont="0"/>
        <request index="14" response="1111100000011111100000" foes="1111100000011111110000" cont="0"/>
        <request index="15" response="1111100000011111001110" foes="1111100000011111001110" cont="0"/>
        <request index="16" response="0000000000000000000000" foes="0000000000000000001110" cont="0"/>
        <request index="17" response="0000000000000000000000" foes="0000001111110000011110" cont="0"/>
        <request index="18" response="0000000000000000000000" foes="0000001111110000011110" cont="0"/>
        <request index="19" response="0000000000000000000000" foes="0000001111110000011110" cont="0"/>
        <request index="20" response="0000000000000000000000" foes="0000001111110000011110" cont="0"/>
        <request index="21" response="0000000000001111000000" foes="0000001111001111011110" cont="1"/>
    </junction>
    <junction id="J1" type="dead_end" x="-100.00" y="100.00" incLanes="E0_0 E0_1 E0_2 E0_3" intLanes="" shape="-100.00,100.00 -90.95,109.05 -100.00,100.00"/>
    <junction id="J2" type="dead_end" x="100.00" y="-100.00" incLanes="E1_0 E1_1 E1_2 E1_3" intLanes="" shape="100.00,-100.00 90.95,-109.05 100.00,-100.00"/>
    <junction id="J3" type="dead_end" x="-100.00" y="0.00" incLanes="E2_0 E2_1 E2_2" intLanes="" shape="-100.00,0.00 -100.00,9.60 -100.00,0.00"/>
    <junction id="J4" type="dead_end" x="100.00" y="0.00" incLanes="E3_0 E3_1 E3_2" intLanes="" shape="100.00,0.00 100.00,-9.60 100.00,0.00"/>

    <junction id=":J0_22_0" type="internal" x="16.89" y="-15.62" incLanes=":J0_10_0 -E0_0 -E0_1 -E0_2 -E0_3" intLanes=":J0_1_0 :J0_1_1 :J0_1_2 :J0_4_0 :J0_12_0 :J0_12_1 :J0_12_2 :J0_15_0 :J0_16_0 :J0_17_0 :J0_17_1 :J0_17_2 :J0_17_3"/>
    <junction id=":J0_23_0" type="internal" x="-16.89" y="15.62" incLanes=":J0_21_0 -E1_0 -E1_1 -E1_2 -E1_3" intLanes=":J0_1_0 :J0_1_1 :J0_1_2 :J0_4_0 :J0_5_0 :J0_6_0 :J0_6_1 :J0_6_2 :J0_6_3 :J0_12_0 :J0_12_1 :J0_12_2 :J0_15_0"/>

    <connection from="-E0" to="E2" fromLane="0" toLane="0" via=":J0_16_0" dir="r" state="M"/>
    <connection from="-E0" to="E1" fromLane="0" toLane="0" via=":J0_17_0" dir="s" state="M"/>
    <connection from="-E0" to="E1" fromLane="1" toLane="1" via=":J0_17_1" dir="s" state="M"/>
    <connection from="-E0" to="E1" fromLane="2" toLane="2" via=":J0_17_2" dir="s" state="M"/>
    <connection from="-E0" to="E1" fromLane="3" toLane="3" via=":J0_17_3" dir="s" state="M"/>
    <connection from="-E0" to="E3" fromLane="3" toLane="2" via=":J0_21_0" dir="l" state="m"/>
    <connection from="-E1" to="E3" fromLane="0" toLane="0" via=":J0_5_0" dir="r" state="M"/>
    <connection from="-E1" to="E0" fromLane="0" toLane="0" via=":J0_6_0" dir="s" state="M"/>
    <connection from="-E1" to="E0" fromLane="1" toLane="1" via=":J0_6_1" dir="s" state="M"/>
    <connection from="-E1" to="E0" fromLane="2" toLane="2" via=":J0_6_2" dir="s" state="M"/>
    <connection from="-E1" to="E0" fromLane="3" toLane="3" via=":J0_6_3" dir="s" state="M"/>
    <connection from="-E1" to="E2" fromLane="3" toLane="2" via=":J0_10_0" dir="l" state="m"/>
    <connection from="-E2" to="E1" fromLane="0" toLane="0" via=":J0_11_0" dir="r" state="m"/>
    <connection from="-E2" to="E3" fromLane="0" toLane="0" via=":J0_12_0" dir="s" state="m"/>
    <connection from="-E2" to="E3" fromLane="1" toLane="1" via=":J0_12_1" dir="s" state="m"/>
    <connection from="-E2" to="E3" fromLane="2" toLane="2" via=":J0_12_2" dir="s" state="m"/>
    <connection from="-E2" to="E0" fromLane="2" toLane="3" via=":J0_15_0" dir="l" state="m"/>
    <connection from="-E3" to="E0" fromLane="0" toLane="0" via=":J0_0_0" dir="r" state="m"/>
    <connection from="-E3" to="E2" fromLane="0" toLane="0" via=":J0_1_0" dir="s" state="m"/>
    <connection from="-E3" to="E2" fromLane="1" toLane="1" via=":J0_1_1" dir="s" state="m"/>
    <connection from="-E3" to="E2" fromLane="2" toLane="2" via=":J0_1_2" dir="s" state="m"/>
    <connection from="-E3" to="E1" fromLane="2" toLane="3" via=":J0_4_0" dir="l" state="m"/>

    <connection from=":J0_0" to="E0" fromLane="0" toLane="0" dir="r" state="M"/>
    <connection from=":J0_1" to="E2" fromLane="0" toLane="0" dir="s" state="M"/>
    <connection from=":J0_1" to="E2" fromLane="1" toLane="1" dir="s" state="M"/>
    <connection from=":J0_1" to="E2" fromLane="2" toLane="2" dir="s" state="M"/>
    <connection from=":J0_4" to="E1" fromLane="0" toLane="3" dir="l" state="M"/>
    <connection from=":J0_5" to="E3" fromLane="0" toLane="0" dir="r" state="M"/>
    <connection from=":J0_6" to="E0" fromLane="0" toLane="0" dir="s" state="M"/>
    <connection from=":J0_6" to="E0" fromLane="1" toLane="1" dir="s" state="M"/>
    <connection from=":J0_6" to="E0" fromLane="2" toLane="2" dir="s" state="M"/>
    <connection from=":J0_6" to="E0" fromLane="3" toLane="3" dir="s" state="M"/>
    <connection from=":J0_10" to="E2" fromLane="0" toLane="2" via=":J0_22_0" dir="l" state="m"/>
    <connection from=":J0_22" to="E2" fromLane="0" toLane="2" dir="l" state="M"/>
    <connection from=":J0_11" to="E1" fromLane="0" toLane="0" dir="r" state="M"/>
    <connection from=":J0_12" to="E3" fromLane="0" toLane="0" dir="s" state="M"/>
    <connection from=":J0_12" to="E3" fromLane="1" toLane="1" dir="s" state="M"/>
    <connection from=":J0_12" to="E3" fromLane="2" toLane="2" dir="s" state="M"/>
    <connection from=":J0_15" to="E0" fromLane="0" toLane="3" dir="l" state="M"/>
    <connection from=":J0_16" to="E2" fromLane="0" toLane="0" dir="r" state="M"/>
    <connection from=":J0_17" to="E1" fromLane="0" toLane="0" dir="s" state="M"/>
    <connection from=":J0_17" to="E1" fromLane="1" toLane="1" dir="s" state="M"/>
    <connection from=":J0_17" to="E1" fromLane="2" toLane="2" dir="s" state="M"/>
    <connection from=":J0_17" to="E1" fromLane="3" toLane="3" dir="s" state="M"/>
    <connection from=":J0_21" to="E3" fromLane="0" toLane="2" via=":J0_23_0" dir="l" state="m"/>
    <connection from=":J0_23" to="E3" fromLane="0" toLane="2" dir="l" state="M"/>

</net>
