<?xml version="1.0" encoding="UTF-8"?>

<net version="1.20" junctionCornerDetail="5" limitTurnSpeed="5.50" xmlns:xsi="http://www.w3.org/2001/XMLSchema-instance" xsi:noNamespaceSchemaLocation="http://sumo.dlr.de/xsd/net_file.xsd">

    <location netOffset="0.00,0.00" convBoundary="-100.00,-100.00,100.00,100.00" origBoundary="10000000000.00,10000000000.00,-10000000000.00,-10000000000.00" projParameter="!"/>

    <edge id=":J0_0" function="internal">
        <lane id=":J0_0_0" index="0" speed="8.10" length="14.57" shape="-1.60,16.80 -2.35,14.35 -4.60,12.60 -8.35,11.55 -13.60,11.20"/>
    </edge>
    <edge id=":J0_1" function="internal">
        <lane id=":J0_1_0" index="0" speed="13.89" length="33.89" shape="-1.60,16.80 -2.60,11.55 -4.80,3.75 -7.00,-5.92 -8.00,-16.80"/>
        <lane id=":J0_1_1" index="1" speed="13.89" length="33.89" shape="-1.60,16.80 -2.10,11.55 -3.20,3.75 -4.30,-5.92 -4.80,-16.80"/>
        <lane id=":J0_1_2" index="2" speed="13.89" length="33.89" shape="-1.60,16.80 -1.60,-16.80"/>
    </edge>
    <edge id=":J0_4" function="internal">
        <lane id=":J0_4_0" index="0" speed="10.88" length="27.14" shape="-1.60,16.80 -0.65,8.75 2.20,3.00 6.95,-0.45 13.60,-1.60"/>
    </edge>
    <edge id=":J0_5" function="internal">
        <lane id=":J0_5_0" index="0" speed="9.26" length="19.35" shape="13.60,4.80 8.35,5.55 4.60,7.80 2.35,11.55 1.60,16.80"/>
    </edge>
    <edge id=":J0_6" function="internal">
        <lane id=":J0_6_0" index="0" speed="13.89" length="27.36" shape="13.60,4.80 7.06,5.30 1.39,6.40 -4.98,7.50 -13.60,8.00"/>
        <lane id=":J0_6_1" index="1" speed="13.89" length="27.36" shape="13.60,1.60 7.06,2.10 1.39,3.20 -4.98,4.30 -13.60,4.80"/>
        <lane id=":J0_6_2" index="2" speed="13.89" length="27.36" shape="13.60,1.60 -13.60,1.60"/>
    </edge>
    <edge id=":J0_9" function="internal">
        <lane id=":J0_9_0" index="0" speed="10.88" length="6.75" shape="13.60,1.60 6.95,0.45"/>
    </edge>
    <edge id=":J0_18" function="internal">
        <lane id=":J0_18_0" index="0" speed="10.88" length="20.39" shape="6.95,0.45 2.20,-3.00 -0.65,-8.75 -1.60,-16.80"/>
    </edge>
    <edge id=":J0_10" function="internal">
        <lane id=":J0_10_0" index="0" speed="8.10" length="14.57" shape="8.00,-16.80 8.35,-11.55 9.40,-7.80 11.15,-5.55 13.60,-4.80"/>
    </edge>
    <edge id=":J0_11" function="internal">
        <lane id=":J0_11_0" index="0" speed="13.89" length="34.29" shape="8.00,-16.80 7.00,-5.92 4.80,3.75 2.60,11.55 1.60,16.80"/>
    </edge>
    <edge id=":J0_12" function="internal">
        <lane id=":J0_12_0" index="0" speed="11.84" length="32.30" shape="4.80,-16.80 3.65,-7.35 0.20,-0.60 -5.55,3.45 -13.60,4.80"/>
        <lane id=":J0_12_1" index="1" speed="10.88" length="27.14" shape="1.60,-16.80 0.65,-8.75 -2.20,-3.00 -6.95,0.45 -13.60,1.60"/>
    </edge>
    <edge id=":J0_14" function="internal">
        <lane id=":J0_14_0" index="0" speed="6.51" length="9.03" shape="-13.60,-11.20 -11.15,-11.55 -9.40,-12.60 -8.35,-14.35 -8.00,-16.80"/>
    </edge>
    <edge id=":J0_15" function="internal">
        <lane id=":J0_15_0" index="0" speed="13.89" length="27.43" shape="-13.60,-8.00 -4.98,-7.50 1.39,-6.40 7.06,-5.30 13.60,-4.80"/>
        <lane id=":J0_15_1" index="1" speed="13.89" length="27.43" shape="-13.60,-4.80 -4.98,-4.30 1.39,-3.20 7.06,-2.10 13.60,-1.60"/>
    </edge>
    <edge id=":J0_17" function="internal">
        <lane id=":J0_17_0" index="0" speed="10.88" length="4.19" shape="-13.60,-1.60 -9.48,-0.89"/>
    </edge>
    <edge id=":J0_19" function="internal">
        <lane id=":J0_19_0" index="0" speed="10.88" length="22.96" shape="-9.48,-0.89 -6.95,-0.45 -2.20,3.00 0.65,8.75 1.60,16.80"/>
    </edge>

    <edge id="-E0" from="J1" to="J0" priority="-1">
        <lane id="-E0_0" index="0" speed="13.89" length="83.20" shape="-1.60,100.00 -1.60,16.80"/>
    </edge>
    <edge id="-E1" from="J2" to="J0" priority="-1">
        <lane id="-E1_0" index="0" speed="13.89" length="86.40" shape="100.00,4.80 13.60,4.80"/>
        <lane id="-E1_1" index="1" speed="13.89" length="86.40" shape="100.00,1.60 13.60,1.60"/>
    </edge>
    <edge id="-E2" from="J3" to="J0" priority="-1">
        <lane id="-E2_0" index="0" speed="13.89" length="83.20" shape="8.00,-100.00 8.00,-16.80"/>
        <lane id="-E2_1" index="1" speed="13.89" length="83.20" shape="4.80,-100.00 4.80,-16.80"/>
        <lane id="-E2_2" index="2" speed="13.89" length="83.20" shape="1.60,-100.00 1.60,-16.80"/>
    </edge>
    <edge id="-E3" from="J4" to="J0" priority="-1">
        <lane id="-E3_0" index="0" speed="13.89" length="86.40" shape="-100.00,-11.20 -13.60,-11.20"/>
        <lane id="-E3_1" index="1" speed="13.89" length="86.40" shape="-100.00,-8.00 -13.60,-8.00"/>
        <lane id="-E3_2" index="2" speed="13.89" length="86.40" shape="-100.00,-4.80 -13.60,-4.80"/>
        <lane id="-E3_3" index="3" speed="13.89" length="86.40" shape="-100.00,-1.60 -13.60,-1.60"/>
    </edge>
    <edge id="E0" from="J0" to="J1" priority="-1">
        <lane id="E0_0" index="0" speed="13.89" length="83.20" shape="1.60,16.80 1.60,100.00"/>
    </edge>
    <edge id="E1" from="J0" to="J2" priority="-1">
        <lane id="E1_0" index="0" speed="13.89" length="86.40" shape="13.60,-4.80 100.00,-4.80"/>
        <lane id="E1_1" index="1" speed="13.89" length="86.40" shape="13.60,-1.60 100.00,-1.60"/>
    </edge>
    <edge id="E2" from="J0" to="J3" priority="-1">
        <lane id="E2_0" index="0" speed="13.89" length="83.20" shape="-8.00,-16.80 -8.00,-100.00"/>
        <lane id="E2_1" index="1" speed="13.89" length="83.20" shape="-4.80,-16.80 -4.80,-100.00"/>
        <lane id="E2_2" index="2" speed="13.89" length="83.20" shape="-1.60,-16.80 -1.60,-100.00"/>
    </edge>
    <edge id="E3" from="J0" to="J4" priority="-1">
        <lane id="E3_0" index="0" speed="13.89" length="86.40" shape="-13.60,11.20 -100.00,11.20"/>
        <lane id="E3_1" index="1" speed="13.89" length="86.40" shape="-13.60,8.00 -100.00,8.00"/>
        <lane id="E3_2" index="2" speed="13.89" length="86.40" shape="-13.60,4.80 -100.00,4.80"/>
        <lane id="E3_3" index="3" speed="13.89" length="86.40" shape="-13.60,1.60 -100.00,1.60"/>
    </edge>

    <junction id="J0" type="priority" x="0.00" y="0.00" incLanes="-E0_0 -E1_0 -E1_1 -E2_0 -E2_1 -E2_2 -E3_0 -E3_1 -E3_2 -E3_3" intLanes=":J0_0_0 :J0_1_0 :J0_1_1 :J0_1_2 :J0_4_0 :J0_5_0 :J0_6_0 :J0_6_1 :J0_6_2 :J0_18_0 :J0_10_0 :J0_11_0 :J0_12_0 :J0_12_1 :J0_14_0 :J0_15_0 :J0_15_1 :J0_19_0" shape="-3.20,16.80 3.20,16.80 3.49,13.62 4.36,11.02 5.80,9.00 7.82,7.56 10.42,6.69 13.60,6.40 13.60,-6.40 11.38,-7.56 10.60,-9.00 10.04,-11.02 9.71,-13.62 9.60,-16.80 -9.60,-16.80 -10.04,-14.58 -10.60,-13.80 -11.38,-13.24 -12.38,-12.91 -13.60,-12.80 -13.60,12.80 -10.42,12.91 -7.82,13.24 -5.80,13.80 -4.36,14.58 -3.49,15.58">
        <request index="0"  response="000000000000000000" foes="000000000000000000" cont="0"/>
        <request index="1"  response="111100001111000000" foes="111111001111000000" cont="0"/>
        <request index="2"  response="111100001111000000" foes="111111001111000000" cont="0"/>
        <request index="3"  response="111100001111000000" foes="111111001111000000" cont="0"/>
        <request index="4"  response="111000101111000000" foes="111000101111000000" cont="0"/>
        <request index="5"  response="000000000000000000" foes="100000100000000000" cont="0"/>
        <request index="6"  response="000000000000000000" foes="100011100000011110" cont="0"/>
        <request index="7"  response="000000000000000000" foes="100011100000011110" cont="0"/>
        <request index="8"  response="000000000000000000" foes="100011100000011110" cont="0"/>
        <request index="9"  response="011000000000000000" foes="011011100000011110" cont="1"/>
        <request index="10" response="011000000000000000" foes="011000000000000000" cont="0"/>
        <request index="11" response="111000001111100000" foes="111000001111110000" cont="0"/>
        <request index="12" response="111000001111001110" foes="111000001111001110" cont="0"/>
        <request index="13" response="111000001111001110" foes="111000001111001110" cont="0"/>
        <request index="14" response="000000000000000000" foes="000000000000001110" cont="0"/>
        <request index="15" response="000000000000000000" foes="000011111000011110" cont="0"/>
        <request index="16" response="000000000000000000" foes="000011111000011110" cont="0"/>
        <request index="17" response="000000000111100000" foes="000011100111111110" cont="1"/>
    </junction>
    <junction id="J1" type="dead_end" x="0.00" y="100.00" incLanes="E0_0" intLanes="" shape="0.00,100.00 3.20,100.00 0.00,100.00"/>
    <junction id="J2" type="dead_end" x="100.00" y="0.00" incLanes="E1_0 E1_1" intLanes="" shape="100.00,0.00 100.00,-6.40 100.00,0.00"/>
    <junction id="J3" type="dead_end" x="0.00" y="-100.00" incLanes="E2_0 E2_1 E2_2" intLanes="" shape="0.00,-100.00 -9.60,-100.00 0.00,-100.00"/>
    <junction id="J4" type="dead_end" x="-100.00" y="0.00" incLanes="E3_0 E3_1 E3_2 E3_3" intLanes="" shape="-100.00,0.00 -100.00,12.80 -100.00,0.00"/>

    <junction id=":J0_18_0" type="internal" x="6.95" y="0.45" incLanes=":J0_9_0 -E3_0 -E3_1 -E3_2" intLanes=":J0_1_0 :J0_1_1 :J0_1_2 :J0_4_0 :J0_11_0 :J0_12_0 :J0_12_1 :J0_14_0 :J0_15_0 :J0_15_1"/>
    <junction id=":J0_19_0" type="internal" x="-9.48" y="-0.89" incLanes=":J0_17_0 -E1_0 -E1_1" intLanes=":J0_1_0 :J0_1_1 :J0_1_2 :J0_4_0 :J0_5_0 :J0_6_0 :J0_6_1 :J0_6_2 :J0_11_0 :J0_12_0 :J0_12_1"/>

    <connection from="-E0" to="E3" fromLane="0" toLane="0" via=":J0_0_0" dir="r" state="M"/>
    <connection from="-E0" to="E2" fromLane="0" toLane="0" via=":J0_1_0" dir="s" state="m"/>
    <connection from="-E0" to="E2" fromLane="0" toLane="1" via=":J0_1_1" dir="s" state="m"/>
    <connection from="-E0" to="E2" fromLane="0" toLane="2" via=":J0_1_2" dir="s" state="m"/>
    <connection from="-E0" to="E1" fromLane="0" toLane="1" via=":J0_4_0" dir="l" state="m"/>
    <connection from="-E1" to="E0" fromLane="0" toLane="0" via=":J0_5_0" dir="r" state="M"/>
    <connection from="-E1" to="E3" fromLane="0" toLane="1" via=":J0_6_0" dir="s" state="M"/>
    <connection from="-E1" to="E3" fromLane="1" toLane="2" via=":J0_6_1" dir="s" state="M"/>
    <connection from="-E1" to="E3" fromLane="1" toLane="3" via=":J0_6_2" dir="s" state="M"/>
    <connection from="-E1" to="E2" fromLane="1" toLane="2" via=":J0_9_0" dir="l" state="m"/>
    <connection from="-E2" to="E1" fromLane="0" toLane="0" via=":J0_10_0" dir="r" state="m"/>
    <connection from="-E2" to="E0" fromLane="0" toLane="0" via=":J0_11_0" dir="s" state="m"/>
    <connection from="-E2" to="E3" fromLane="1" toLane="2" via=":J0_12_0" dir="l" state="m"/>
    <connection from="-E2" to="E3" fromLane="2" toLane="3" via=":J0_12_1" dir="l" state="m"/>
    <connection from="-E3" to="E2" fromLane="0" toLane="0" via=":J0_14_0" dir="r" state="M"/>
    <connection from="-E3" to="E1" fromLane="1" toLane="0" via=":J0_15_0" dir="s" state="M"/>
    <connection from="-E3" to="E1" fromLane="2" toLane="1" via=":J0_15_1" dir="s" state="M"/>
    <connection from="-E3" to="E0" fromLane="3" toLane="0" via=":J0_17_0" dir="l" state="m"/>

    <connection from=":J0_0" to="E3" fromLane="0" toLane="0" dir="r" state="M"/>
    <connection from=":J0_1" to="E2" fromLane="0" toLane="0" dir="s" state="M"/>
    <connection from=":J0_1" to="E2" fromLane="1" toLane="1" dir="s" state="M"/>
    <connection from=":J0_1" to="E2" fromLane="2" toLane="2" dir="s" state="M"/>
    <connection from=":J0_4" to="E1" fromLane="0" toLane="1" dir="l" state="M"/>
    <connection from=":J0_5" to="E0" fromLane="0" toLane="0" dir="r" state="M"/>
    <connection from=":J0_6" to="E3" fromLane="0" toLane="1" dir="s" state="M"/>
    <connection from=":J0_6" to="E3" fromLane="1" toLane="2" dir="s" state="M"/>
    <connection from=":J0_6" to="E3" fromLane="2" toLane="3" dir="s" state="M"/>
    <connection from=":J0_9" to="E2" fromLane="0" toLane="2" via=":J0_18_0" dir="l" state="m"/>
    <connection from=":J0_18" to="E2" fromLane="0" toLane="2" dir="l" state="M"/>
    <connection from=":J0_10" to="E1" fromLane="0" toLane="0" dir="r" state="M"/>
    <connection from=":J0_11" to="E0" fromLane="0" toLane="0" dir="s" state="M"/>
    <connection from=":J0_12" to="E3" fromLane="0" toLane="2" dir="l" state="M"/>
    <connection from=":J0_12" to="E3" fromLane="1" toLane="3" dir="l" state="M"/>
    <connection from=":J0_14" to="E2" fromLane="0" toLane="0" dir="r" state="M"/>
    <connection from=":J0_15" to="E1" fromLane="0" toLane="0" dir="s" state="M"/>
    <connection from=":J0_15" to="E1" fromLane="1" toLane="1" dir="s" state="M"/>
    <connection from=":J0_17" to="E0" fromLane="0" toLane="0" via=":J0_19_0" dir="l" state="m"/>
    <connection from=":J0_19" to="E0" fromLane="0" toLane="0" dir="l" state="M"/>

</net>
